[TANK]
N9	-82.70 	1
[JUNCTIONS]
N3	29.19 	0.3
N6	25.45 	0.3
[PIPES]
L4	20.06 	1
[JUNDEMANDS]
N1	7.86 	3
N2	6.57 	1.5
N3	21.13 	4.5
N4	4.07 	1.2
N5	9.65 	3
N6	9.58 	2.4
N7	6.40 	3
N8	14.42 	6